notebook_tutorials/synthetic_net_opendss/master_sample_9.dss
clear
new circuit.synthetic_net basekv=157.6864406779661 pu=1.0 phases=3
edit Vsource.source bus1=bus_68.1.2.3

!---------------- LINES ----------------

new linecode.LCode_0 nphases=1 rmatrix=[0.400276] xmatrix=[1.798412] units=km
new line.line_0 bus1=bus_0.2 bus2=bus_1.2 linecode=LCode_0 length=1.0 units=km
new linecode.LCode_1 nphases=1 rmatrix=[1.114739] xmatrix=[1.686607] units=km
new line.line_1 bus1=bus_0.2 bus2=bus_2.2 linecode=LCode_1 length=1.0 units=km
new linecode.LCode_2 nphases=1 rmatrix=[0.466401] xmatrix=[1.326416] units=km
new line.line_2 bus1=bus_3.2 bus2=bus_4.2 linecode=LCode_2 length=1.0 units=km
new linecode.LCode_3 nphases=1 rmatrix=[0.720603] xmatrix=[1.242115] units=km
new line.line_3 bus1=bus_2.2 bus2=bus_4.2 linecode=LCode_3 length=1.0 units=km
new linecode.LCode_4 nphases=1 rmatrix=[1.032030] xmatrix=[1.242115] units=km
new line.line_4 bus1=bus_4.2 bus2=bus_5.2 linecode=LCode_4 length=1.0 units=km
new linecode.LCode_5 nphases=1 rmatrix=[0.646386] xmatrix=[1.242115] units=km
new line.line_5 bus1=bus_5.2 bus2=bus_6.2 linecode=LCode_5 length=1.0 units=km
new linecode.LCode_6 nphases=1 rmatrix=[0.949810] xmatrix=[1.242115] units=km
new line.line_6 bus1=bus_7.2 bus2=bus_8.2 linecode=LCode_6 length=1.0 units=km
new linecode.LCode_7 nphases=1 rmatrix=[1.133206] xmatrix=[1.242115] units=km
new line.line_7 bus1=bus_8.2 bus2=bus_9.2 linecode=LCode_7 length=1.0 units=km
new linecode.LCode_8 nphases=1 rmatrix=[1.184226] xmatrix=[1.303811] units=km
new line.line_8 bus1=bus_3.2 bus2=bus_10.2 linecode=LCode_8 length=1.0 units=km
new linecode.LCode_9 nphases=1 rmatrix=[1.021057] xmatrix=[1.305765] units=km
new line.line_9 bus1=bus_4.2 bus2=bus_10.2 linecode=LCode_9 length=1.0 units=km
new linecode.LCode_10 nphases=1 rmatrix=[0.804828] xmatrix=[1.319712] units=km
new line.line_10 bus1=bus_10.2 bus2=bus_11.2 linecode=LCode_10 length=1.0 units=km
new linecode.LCode_11 nphases=1 rmatrix=[1.184230] xmatrix=[1.242115] units=km
new line.line_11 bus1=bus_1.2 bus2=bus_11.2 linecode=LCode_11 length=1.0 units=km
new linecode.LCode_12 nphases=1 rmatrix=[0.418647] xmatrix=[1.242115] units=km
new line.line_12 bus1=bus_2.2 bus2=bus_11.2 linecode=LCode_12 length=1.0 units=km
new linecode.LCode_13 nphases=1 rmatrix=[0.664000] xmatrix=[1.478150] units=km
new line.line_13 bus1=bus_6.2 bus2=bus_11.2 linecode=LCode_13 length=1.0 units=km
new linecode.LCode_16 nphases=1 rmatrix=[0.335165] xmatrix=[1.335588] units=km
new line.line_16 bus1=bus_12.3 bus2=bus_14.3 linecode=LCode_16 length=1.0 units=km
new linecode.LCode_17 nphases=1 rmatrix=[0.857800] xmatrix=[1.440456] units=km
new line.line_17 bus1=bus_13.3 bus2=bus_14.3 linecode=LCode_17 length=1.0 units=km
new linecode.LCode_18 nphases=1 rmatrix=[0.657844] xmatrix=[1.242115] units=km
new line.line_18 bus1=bus_11.2 bus2=bus_15.2 linecode=LCode_18 length=1.0 units=km
new linecode.LCode_20 nphases=1 rmatrix=[0.915611] xmatrix=[1.304941] units=km
new line.line_20 bus1=bus_15.2 bus2=bus_16.2 linecode=LCode_20 length=1.0 units=km
new linecode.LCode_21 nphases=1 rmatrix=[0.969999] xmatrix=[1.422085] units=km
new line.line_21 bus1=bus_16.2 bus2=bus_17.2 linecode=LCode_21 length=1.0 units=km
new linecode.LCode_23 nphases=1 rmatrix=[0.500716] xmatrix=[1.271450] units=km
new line.line_23 bus1=bus_18.3 bus2=bus_19.3 linecode=LCode_23 length=1.0 units=km
new linecode.LCode_24 nphases=1 rmatrix=[0.701582] xmatrix=[1.242115] units=km
new line.line_24 bus1=bus_14.3 bus2=bus_18.3 linecode=LCode_24 length=1.0 units=km
new linecode.LCode_25 nphases=2 rmatrix=[1.434563 | 0.059160 1.434563] xmatrix=[1.242115 | 1.024695 1.242115] units=km
new line.line_25 bus1=bus_19.2.3 bus2=bus_20.2.3 linecode=LCode_25 length=1.0 units=km
new linecode.LCode_26 nphases=2 rmatrix=[0.618564 | 0.059160 0.618564] xmatrix=[1.449594 | 1.024695 1.449594] units=km
new line.line_26 bus1=bus_20.2.3 bus2=bus_21.2.3 linecode=LCode_26 length=1.0 units=km
new linecode.LCode_27 nphases=2 rmatrix=[0.552210 | 0.059160 0.552210] xmatrix=[1.526625 | 1.024695 1.526625] units=km
new line.line_27 bus1=bus_21.2.3 bus2=bus_22.2.3 linecode=LCode_27 length=1.0 units=km
new linecode.LCode_28 nphases=2 rmatrix=[0.746381 | 0.059160 0.746381] xmatrix=[1.343716 | 1.024695 1.343716] units=km
new line.line_28 bus1=bus_22.2.3 bus2=bus_23.2.3 linecode=LCode_28 length=1.0 units=km
new linecode.LCode_29 nphases=2 rmatrix=[0.694274 | 0.059160 0.694274] xmatrix=[1.396394 | 1.024695 1.396394] units=km
new line.line_29 bus1=bus_22.2.3 bus2=bus_24.2.3 linecode=LCode_29 length=1.0 units=km
new linecode.LCode_30 nphases=1 rmatrix=[0.942946] xmatrix=[1.312747] units=km
new line.line_30 bus1=bus_24.3 bus2=bus_26.3 linecode=LCode_30 length=1.0 units=km
new linecode.LCode_31 nphases=1 rmatrix=[0.663053] xmatrix=[1.503004] units=km
new line.line_31 bus1=bus_26.3 bus2=bus_27.3 linecode=LCode_31 length=1.0 units=km
new linecode.LCode_32 nphases=1 rmatrix=[0.658018] xmatrix=[1.242115] units=km
new line.line_32 bus1=bus_27.3 bus2=bus_28.3 linecode=LCode_32 length=1.0 units=km
new linecode.LCode_33 nphases=1 rmatrix=[0.622482] xmatrix=[1.322409] units=km
new line.line_33 bus1=bus_7.2 bus2=bus_29.2 linecode=LCode_33 length=1.0 units=km
new linecode.LCode_34 nphases=1 rmatrix=[0.262733] xmatrix=[1.434820] units=km
new line.line_34 bus1=bus_25.2 bus2=bus_29.2 linecode=LCode_34 length=1.0 units=km
new linecode.LCode_35 nphases=1 rmatrix=[0.282926] xmatrix=[1.307131] units=km
new line.line_35 bus1=bus_16.2 bus2=bus_30.2 linecode=LCode_35 length=1.0 units=km
new linecode.LCode_36 nphases=2 rmatrix=[0.724054 | 0.059160 0.724054] xmatrix=[1.369713 | 1.024695 1.369713] units=km
new line.line_36 bus1=bus_28.2.3 bus2=bus_30.2.3 linecode=LCode_36 length=1.0 units=km
new linecode.LCode_37 nphases=2 rmatrix=[0.882207 | 0.059160 0.882207] xmatrix=[1.391761 | 1.024695 1.391761] units=km
new line.line_37 bus1=bus_22.2.3 bus2=bus_31.2.3 linecode=LCode_37 length=1.0 units=km
new linecode.LCode_38 nphases=2 rmatrix=[0.578576 | 0.059160 0.578576] xmatrix=[1.242115 | 1.024695 1.242115] units=km
new line.line_38 bus1=bus_30.2.3 bus2=bus_31.2.3 linecode=LCode_38 length=1.0 units=km
new linecode.LCode_39 nphases=1 rmatrix=[0.224087] xmatrix=[1.242115] units=km
new line.line_39 bus1=bus_26.3 bus2=bus_31.3 linecode=LCode_39 length=1.0 units=km
new linecode.LCode_40 nphases=1 rmatrix=[1.449601] xmatrix=[1.280098] units=km
new line.line_40 bus1=bus_14.3 bus2=bus_32.3 linecode=LCode_40 length=1.0 units=km
new linecode.LCode_41 nphases=1 rmatrix=[0.768894] xmatrix=[1.242115] units=km
new line.line_41 bus1=bus_18.3 bus2=bus_33.3 linecode=LCode_41 length=1.0 units=km
new linecode.LCode_42 nphases=1 rmatrix=[0.448221] xmatrix=[1.242115] units=km
new line.line_42 bus1=bus_34.3 bus2=bus_35.3 linecode=LCode_42 length=1.0 units=km
new linecode.LCode_43 nphases=1 rmatrix=[0.760345] xmatrix=[1.272527] units=km
new line.line_43 bus1=bus_34.3 bus2=bus_36.3 linecode=LCode_43 length=1.0 units=km
new linecode.LCode_44 nphases=1 rmatrix=[0.789779] xmatrix=[1.267053] units=km
new line.line_44 bus1=bus_32.3 bus2=bus_36.3 linecode=LCode_44 length=1.0 units=km
new linecode.LCode_45 nphases=1 rmatrix=[0.266667] xmatrix=[1.263926] units=km
new line.line_45 bus1=bus_33.3 bus2=bus_35.3 linecode=LCode_45 length=1.0 units=km
new linecode.LCode_46 nphases=1 rmatrix=[0.889599] xmatrix=[1.491780] units=km
new line.line_46 bus1=bus_33.3 bus2=bus_36.3 linecode=LCode_46 length=1.0 units=km
new linecode.LCode_47 nphases=1 rmatrix=[0.629327] xmatrix=[1.429444] units=km
new line.line_47 bus1=bus_36.3 bus2=bus_38.3 linecode=LCode_47 length=1.0 units=km
new linecode.LCode_48 nphases=1 rmatrix=[0.917069] xmatrix=[1.412819] units=km
new line.line_48 bus1=bus_36.3 bus2=bus_39.3 linecode=LCode_48 length=1.0 units=km
new linecode.LCode_49 nphases=2 rmatrix=[0.234247 | 0.059160 0.234247] xmatrix=[1.242115 | 1.024695 1.242115] units=km
new line.line_49 bus1=bus_29.1.2 bus2=bus_37.1.2 linecode=LCode_49 length=1.0 units=km
new linecode.LCode_50 nphases=2 rmatrix=[0.304589 | 0.059160 0.304589] xmatrix=[1.255846 | 1.024695 1.255846] units=km
new line.line_50 bus1=bus_38.2.3 bus2=bus_39.2.3 linecode=LCode_50 length=1.0 units=km
new linecode.LCode_51 nphases=2 rmatrix=[0.693031 | 0.059160 0.693031] xmatrix=[1.242115 | 1.024695 1.242115] units=km
new line.line_51 bus1=bus_39.2.3 bus2=bus_40.2.3 linecode=LCode_51 length=1.0 units=km
new linecode.LCode_52 nphases=2 rmatrix=[0.316509 | 0.059160 0.316509] xmatrix=[1.283098 | 1.024695 1.283098] units=km
new line.line_52 bus1=bus_39.2.3 bus2=bus_41.2.3 linecode=LCode_52 length=1.0 units=km
new linecode.LCode_53 nphases=2 rmatrix=[1.119431 | 0.059160 1.119431] xmatrix=[1.317867 | 1.024695 1.317867] units=km
new line.line_53 bus1=bus_40.2.3 bus2=bus_41.2.3 linecode=LCode_53 length=1.0 units=km
new linecode.LCode_54 nphases=2 rmatrix=[0.782692 | 0.059160 0.782692] xmatrix=[1.517405 | 1.024695 1.517405] units=km
new line.line_54 bus1=bus_42.2.3 bus2=bus_43.2.3 linecode=LCode_54 length=1.0 units=km
new linecode.LCode_55 nphases=1 rmatrix=[0.605053] xmatrix=[1.242115] units=km
new line.line_55 bus1=bus_33.3 bus2=bus_42.3 linecode=LCode_55 length=1.0 units=km
new linecode.LCode_56 nphases=2 rmatrix=[0.218647 | 0.059160 0.218647] xmatrix=[1.685532 | 1.024695 1.685532] units=km
new line.line_56 bus1=bus_43.2.3 bus2=bus_44.2.3 linecode=LCode_56 length=1.0 units=km
new linecode.LCode_57 nphases=2 rmatrix=[0.772171 | 0.059160 0.772171] xmatrix=[1.242115 | 1.024695 1.242115] units=km
new line.line_57 bus1=bus_44.2.3 bus2=bus_45.2.3 linecode=LCode_57 length=1.0 units=km
new linecode.LCode_58 nphases=2 rmatrix=[0.363785 | 0.059160 0.363785] xmatrix=[1.393149 | 1.024695 1.393149] units=km
new line.line_58 bus1=bus_45.2.3 bus2=bus_46.2.3 linecode=LCode_58 length=1.0 units=km
new linecode.LCode_59 nphases=2 rmatrix=[0.691862 | 0.059160 0.691862] xmatrix=[1.242115 | 1.024695 1.242115] units=km
new line.line_59 bus1=bus_45.2.3 bus2=bus_47.2.3 linecode=LCode_59 length=1.0 units=km
new linecode.LCode_60 nphases=2 rmatrix=[0.579855 | 0.059160 0.579855] xmatrix=[1.242115 | 1.024695 1.242115] units=km
new line.line_60 bus1=bus_46.2.3 bus2=bus_48.2.3 linecode=LCode_60 length=1.0 units=km
new linecode.LCode_61 nphases=2 rmatrix=[0.958172 | 0.059160 0.958172] xmatrix=[1.242115 | 1.024695 1.242115] units=km
new line.line_61 bus1=bus_41.2.3 bus2=bus_48.2.3 linecode=LCode_61 length=1.0 units=km
new linecode.LCode_62 nphases=2 rmatrix=[0.383454 | 0.059160 0.383454] xmatrix=[1.310875 | 1.024695 1.310875] units=km
new line.line_62 bus1=bus_41.2.3 bus2=bus_48.2.3 linecode=LCode_62 length=1.0 units=km
new linecode.LCode_63 nphases=2 rmatrix=[0.313708 | 0.059160 0.313708] xmatrix=[1.493086 | 1.024695 1.493086] units=km
new line.line_63 bus1=bus_44.2.3 bus2=bus_48.2.3 linecode=LCode_63 length=1.0 units=km
new linecode.LCode_64 nphases=3 rmatrix=[0.241886 | 0.059160 0.241886 | 0.059160 0.059160 0.241886] xmatrix=[1.485421 | 1.024695 1.485421 | 0.940589 1.024695 1.485421] units=km
new line.line_64 bus1=bus_47.1.2.3 bus2=bus_48.1.2.3 linecode=LCode_64 length=1.0 units=km
new linecode.LCode_65 nphases=3 rmatrix=[1.020184 | 0.059160 1.020184 | 0.059160 0.059160 1.020184] xmatrix=[1.242115 | 1.024695 1.242115 | 0.940589 1.024695 1.242115] units=km
new line.line_65 bus1=bus_48.1.2.3 bus2=bus_49.1.2.3 linecode=LCode_65 length=1.0 units=km
new linecode.LCode_66 nphases=2 rmatrix=[0.821359 | 0.059160 0.821359] xmatrix=[1.362484 | 1.024695 1.362484] units=km
new line.line_66 bus1=bus_48.2.3 bus2=bus_50.2.3 linecode=LCode_66 length=1.0 units=km
new linecode.LCode_67 nphases=2 rmatrix=[0.598062 | 0.059160 0.598062] xmatrix=[1.242115 | 1.024695 1.242115] units=km
new line.line_67 bus1=bus_50.2.3 bus2=bus_51.2.3 linecode=LCode_67 length=1.0 units=km
new linecode.LCode_68 nphases=1 rmatrix=[0.679494] xmatrix=[1.242115] units=km
new line.line_68 bus1=bus_51.2 bus2=bus_52.2 linecode=LCode_68 length=1.0 units=km
new linecode.LCode_69 nphases=2 rmatrix=[0.729591 | 0.059160 0.729591] xmatrix=[1.355936 | 1.024695 1.355936] units=km
new line.line_69 bus1=bus_52.1.2 bus2=bus_53.1.2 linecode=LCode_69 length=1.0 units=km
new linecode.LCode_70 nphases=2 rmatrix=[0.630537 | 0.059160 0.630537] xmatrix=[1.242115 | 1.024695 1.242115] units=km
new line.line_70 bus1=bus_48.1.2 bus2=bus_53.1.2 linecode=LCode_70 length=1.0 units=km
new linecode.LCode_71 nphases=2 rmatrix=[0.151331 | 0.059160 0.151331] xmatrix=[1.242115 | 1.024695 1.242115] units=km
new line.line_71 bus1=bus_48.1.2 bus2=bus_53.1.2 linecode=LCode_71 length=1.0 units=km
new linecode.LCode_72 nphases=1 rmatrix=[0.631762] xmatrix=[1.242115] units=km
new line.line_72 bus1=bus_53.2 bus2=bus_54.2 linecode=LCode_72 length=1.0 units=km
new linecode.LCode_73 nphases=2 rmatrix=[0.186390 | 0.059160 0.186390] xmatrix=[1.474444 | 1.024695 1.474444] units=km
new line.line_73 bus1=bus_53.1.2 bus2=bus_55.1.2 linecode=LCode_73 length=1.0 units=km
new linecode.LCode_74 nphases=1 rmatrix=[0.668261] xmatrix=[1.242115] units=km
new line.line_74 bus1=bus_54.2 bus2=bus_55.2 linecode=LCode_74 length=1.0 units=km
new linecode.LCode_75 nphases=2 rmatrix=[0.925607 | 0.059160 0.925607] xmatrix=[1.242115 | 1.024695 1.242115] units=km
new line.line_75 bus1=bus_55.1.2 bus2=bus_56.1.2 linecode=LCode_75 length=1.0 units=km
new linecode.LCode_76 nphases=3 rmatrix=[0.465375 | 0.059160 0.465375 | 0.059160 0.059160 0.465375] xmatrix=[1.562988 | 1.024695 1.562988 | 0.940589 1.024695 1.562988] units=km
new line.line_76 bus1=bus_49.1.2.3 bus2=bus_56.1.2.3 linecode=LCode_76 length=1.0 units=km
new linecode.LCode_77 nphases=1 rmatrix=[0.983549] xmatrix=[1.242115] units=km
new line.line_77 bus1=bus_55.2 bus2=bus_57.2 linecode=LCode_77 length=1.0 units=km
new linecode.LCode_78 nphases=2 rmatrix=[0.485162 | 0.059160 0.485162] xmatrix=[1.242115 | 1.024695 1.242115] units=km
new line.line_78 bus1=bus_50.2.3 bus2=bus_57.2.3 linecode=LCode_78 length=1.0 units=km
new linecode.LCode_79 nphases=1 rmatrix=[0.832047] xmatrix=[1.327657] units=km
new line.line_79 bus1=bus_53.2 bus2=bus_58.2 linecode=LCode_79 length=1.0 units=km
new linecode.LCode_80 nphases=1 rmatrix=[0.946620] xmatrix=[1.463555] units=km
new line.line_80 bus1=bus_55.2 bus2=bus_58.2 linecode=LCode_80 length=1.0 units=km
new linecode.LCode_81 nphases=1 rmatrix=[0.439740] xmatrix=[1.242115] units=km
new line.line_81 bus1=bus_55.2 bus2=bus_58.2 linecode=LCode_81 length=1.0 units=km
new linecode.LCode_82 nphases=1 rmatrix=[0.651604] xmatrix=[1.279713] units=km
new line.line_82 bus1=bus_54.2 bus2=bus_58.2 linecode=LCode_82 length=1.0 units=km
new linecode.LCode_83 nphases=1 rmatrix=[0.666278] xmatrix=[1.366376] units=km
new line.line_83 bus1=bus_58.2 bus2=bus_59.2 linecode=LCode_83 length=1.0 units=km
new linecode.LCode_84 nphases=1 rmatrix=[1.150362] xmatrix=[1.242115] units=km
new line.line_84 bus1=bus_58.2 bus2=bus_60.2 linecode=LCode_84 length=1.0 units=km
new linecode.LCode_85 nphases=1 rmatrix=[0.756334] xmatrix=[1.242115] units=km
new line.line_85 bus1=bus_59.2 bus2=bus_60.2 linecode=LCode_85 length=1.0 units=km
new linecode.LCode_86 nphases=1 rmatrix=[1.038256] xmatrix=[1.242115] units=km
new line.line_86 bus1=bus_59.2 bus2=bus_61.2 linecode=LCode_86 length=1.0 units=km
new linecode.LCode_87 nphases=1 rmatrix=[0.304827] xmatrix=[1.330447] units=km
new line.line_87 bus1=bus_60.2 bus2=bus_61.2 linecode=LCode_87 length=1.0 units=km
new linecode.LCode_88 nphases=2 rmatrix=[0.553046 | 0.059160 0.553046] xmatrix=[1.242115 | 1.024695 1.242115] units=km
new line.line_88 bus1=bus_62.1.2 bus2=bus_63.1.2 linecode=LCode_88 length=1.0 units=km
new linecode.LCode_89 nphases=2 rmatrix=[1.000710 | 0.059160 1.000710] xmatrix=[1.364246 | 1.024695 1.364246] units=km
new line.line_89 bus1=bus_37.1.2 bus2=bus_64.1.2 linecode=LCode_89 length=1.0 units=km
new linecode.LCode_90 nphases=2 rmatrix=[1.056921 | 0.059160 1.056921] xmatrix=[1.242115 | 1.024695 1.242115] units=km
new line.line_90 bus1=bus_63.1.2 bus2=bus_64.1.2 linecode=LCode_90 length=1.0 units=km
new linecode.LCode_91 nphases=2 rmatrix=[0.488250 | 0.059160 0.488250] xmatrix=[1.242115 | 1.024695 1.242115] units=km
new line.line_91 bus1=bus_48.1.2 bus2=bus_65.1.2 linecode=LCode_91 length=1.0 units=km
new linecode.LCode_92 nphases=2 rmatrix=[0.247145 | 0.059160 0.247145] xmatrix=[1.242115 | 1.024695 1.242115] units=km
new line.line_92 bus1=bus_48.1.2 bus2=bus_65.1.2 linecode=LCode_92 length=1.0 units=km
new linecode.LCode_93 nphases=1 rmatrix=[0.602963] xmatrix=[1.242115] units=km
new line.line_93 bus1=bus_61.2 bus2=bus_65.2 linecode=LCode_93 length=1.0 units=km
new linecode.LCode_94 nphases=1 rmatrix=[0.372331] xmatrix=[1.316013] units=km
new line.line_94 bus1=bus_61.2 bus2=bus_66.2 linecode=LCode_94 length=1.0 units=km
new linecode.LCode_95 nphases=2 rmatrix=[0.488595 | 0.059160 0.488595] xmatrix=[1.242115 | 1.024695 1.242115] units=km
new line.line_95 bus1=bus_65.1.2 bus2=bus_66.1.2 linecode=LCode_95 length=1.0 units=km
new linecode.LCode_96 nphases=2 rmatrix=[0.645696 | 0.059160 0.645696] xmatrix=[1.391957 | 1.024695 1.391957] units=km
new line.line_96 bus1=bus_46.2.3 bus2=bus_68.2.3 linecode=LCode_96 length=1.0 units=km
new linecode.LCode_97 nphases=3 rmatrix=[0.327056 | 0.059160 0.327056 | 0.059160 0.059160 0.327056] xmatrix=[1.324433 | 1.024695 1.324433 | 0.940589 1.024695 1.324433] units=km
new line.line_97 bus1=bus_48.1.2.3 bus2=bus_68.1.2.3 linecode=LCode_97 length=1.0 units=km
new linecode.LCode_98 nphases=2 rmatrix=[0.290705 | 0.059160 0.290705] xmatrix=[1.242115 | 1.024695 1.242115] units=km
new line.line_98 bus1=bus_68.2.3 bus2=bus_69.2.3 linecode=LCode_98 length=1.0 units=km
new linecode.LCode_99 nphases=2 rmatrix=[0.831756 | 0.059160 0.831756] xmatrix=[1.293437 | 1.024695 1.293437] units=km
new line.line_99 bus1=bus_23.2.3 bus2=bus_69.2.3 linecode=LCode_99 length=1.0 units=km
new linecode.LCode_100 nphases=1 rmatrix=[0.350648] xmatrix=[1.242115] units=km
new line.line_100 bus1=bus_69.3 bus2=bus_70.3 linecode=LCode_100 length=1.0 units=km
new linecode.LCode_101 nphases=2 rmatrix=[0.611829 | 0.059160 0.611829] xmatrix=[1.587081 | 1.024695 1.587081] units=km
new line.line_101 bus1=bus_23.2.3 bus2=bus_71.2.3 linecode=LCode_101 length=1.0 units=km
new linecode.LCode_102 nphases=1 rmatrix=[0.471874] xmatrix=[1.242115] units=km
new line.line_102 bus1=bus_70.3 bus2=bus_71.3 linecode=LCode_102 length=1.0 units=km
new linecode.LCode_103 nphases=1 rmatrix=[1.335495] xmatrix=[1.242115] units=km
new line.line_103 bus1=bus_70.3 bus2=bus_72.3 linecode=LCode_103 length=1.0 units=km
new linecode.LCode_104 nphases=2 rmatrix=[0.648562 | 0.059160 0.648562] xmatrix=[1.289047 | 1.024695 1.289047] units=km
new line.line_104 bus1=bus_69.2.3 bus2=bus_73.2.3 linecode=LCode_104 length=1.0 units=km
new linecode.LCode_105 nphases=2 rmatrix=[0.882046 | 0.059160 0.882046] xmatrix=[1.565622 | 1.024695 1.565622] units=km
new line.line_105 bus1=bus_69.2.3 bus2=bus_74.2.3 linecode=LCode_105 length=1.0 units=km
new linecode.LCode_106 nphases=2 rmatrix=[0.958336 | 0.059160 0.958336] xmatrix=[1.242115 | 1.024695 1.242115] units=km
new line.line_106 bus1=bus_68.2.3 bus2=bus_74.2.3 linecode=LCode_106 length=1.0 units=km
new linecode.LCode_107 nphases=2 rmatrix=[0.905064 | 0.059160 0.905064] xmatrix=[1.246450 | 1.024695 1.246450] units=km
new line.line_107 bus1=bus_73.2.3 bus2=bus_74.2.3 linecode=LCode_107 length=1.0 units=km
new linecode.LCode_108 nphases=1 rmatrix=[0.741305] xmatrix=[1.242115] units=km
new line.line_108 bus1=bus_75.1 bus2=bus_76.1 linecode=LCode_108 length=1.0 units=km
new linecode.LCode_109 nphases=1 rmatrix=[0.271624] xmatrix=[1.466680] units=km
new line.line_109 bus1=bus_68.1 bus2=bus_76.1 linecode=LCode_109 length=1.0 units=km
new linecode.LCode_111 nphases=1 rmatrix=[0.303548] xmatrix=[1.384012] units=km
new line.line_111 bus1=bus_76.1 bus2=bus_77.1 linecode=LCode_111 length=1.0 units=km
new linecode.LCode_112 nphases=1 rmatrix=[0.232218] xmatrix=[1.640038] units=km
new line.line_112 bus1=bus_77.1 bus2=bus_78.1 linecode=LCode_112 length=1.0 units=km
new linecode.LCode_113 nphases=1 rmatrix=[0.751287] xmatrix=[1.382983] units=km
new line.line_113 bus1=bus_76.1 bus2=bus_79.1 linecode=LCode_113 length=1.0 units=km
new linecode.LCode_114 nphases=1 rmatrix=[0.737661] xmatrix=[1.365781] units=km
new line.line_114 bus1=bus_76.1 bus2=bus_79.1 linecode=LCode_114 length=1.0 units=km
new linecode.LCode_115 nphases=1 rmatrix=[0.513233] xmatrix=[1.268445] units=km
new line.line_115 bus1=bus_78.1 bus2=bus_79.1 linecode=LCode_115 length=1.0 units=km
new linecode.LCode_116 nphases=1 rmatrix=[0.189622] xmatrix=[1.294665] units=km
new line.line_116 bus1=bus_76.1 bus2=bus_81.1 linecode=LCode_116 length=1.0 units=km
new linecode.LCode_117 nphases=1 rmatrix=[0.789259] xmatrix=[1.242115] units=km
new line.line_117 bus1=bus_81.1 bus2=bus_82.1 linecode=LCode_117 length=1.0 units=km
new linecode.LCode_118 nphases=1 rmatrix=[0.802479] xmatrix=[1.242115] units=km
new line.line_118 bus1=bus_82.1 bus2=bus_83.1 linecode=LCode_118 length=1.0 units=km
new linecode.LCode_119 nphases=1 rmatrix=[0.988877] xmatrix=[1.482942] units=km
new line.line_119 bus1=bus_82.1 bus2=bus_84.1 linecode=LCode_119 length=1.0 units=km
new linecode.LCode_120 nphases=1 rmatrix=[0.743670] xmatrix=[1.346177] units=km
new line.line_120 bus1=bus_83.1 bus2=bus_84.1 linecode=LCode_120 length=1.0 units=km
new linecode.LCode_121 nphases=1 rmatrix=[0.349328] xmatrix=[1.355074] units=km
new line.line_121 bus1=bus_84.1 bus2=bus_85.1 linecode=LCode_121 length=1.0 units=km
new linecode.LCode_122 nphases=1 rmatrix=[0.493353] xmatrix=[1.427327] units=km
new line.line_122 bus1=bus_84.1 bus2=bus_87.1 linecode=LCode_122 length=1.0 units=km
new linecode.LCode_123 nphases=1 rmatrix=[0.622371] xmatrix=[1.263141] units=km
new line.line_123 bus1=bus_84.1 bus2=bus_88.1 linecode=LCode_123 length=1.0 units=km
new linecode.LCode_124 nphases=1 rmatrix=[0.307261] xmatrix=[1.242115] units=km
new line.line_124 bus1=bus_87.1 bus2=bus_88.1 linecode=LCode_124 length=1.0 units=km
new linecode.LCode_125 nphases=1 rmatrix=[1.002799] xmatrix=[1.368285] units=km
new line.line_125 bus1=bus_88.1 bus2=bus_89.1 linecode=LCode_125 length=1.0 units=km
new linecode.LCode_126 nphases=1 rmatrix=[0.357729] xmatrix=[1.302881] units=km
new line.line_126 bus1=bus_88.1 bus2=bus_89.1 linecode=LCode_126 length=1.0 units=km
new linecode.LCode_127 nphases=1 rmatrix=[0.555918] xmatrix=[1.242115] units=km
new line.line_127 bus1=bus_89.1 bus2=bus_90.1 linecode=LCode_127 length=1.0 units=km
new linecode.LCode_128 nphases=1 rmatrix=[1.039936] xmatrix=[1.242115] units=km
new line.line_128 bus1=bus_88.1 bus2=bus_91.1 linecode=LCode_128 length=1.0 units=km
new linecode.LCode_129 nphases=1 rmatrix=[0.745822] xmatrix=[1.297582] units=km
new line.line_129 bus1=bus_88.1 bus2=bus_91.1 linecode=LCode_129 length=1.0 units=km
new linecode.LCode_130 nphases=1 rmatrix=[0.792290] xmatrix=[1.242115] units=km
new line.line_130 bus1=bus_90.1 bus2=bus_91.1 linecode=LCode_130 length=1.0 units=km
new linecode.LCode_131 nphases=1 rmatrix=[0.777188] xmatrix=[1.242115] units=km
new line.line_131 bus1=bus_91.1 bus2=bus_92.1 linecode=LCode_131 length=1.0 units=km
new linecode.LCode_132 nphases=1 rmatrix=[0.283106] xmatrix=[1.473041] units=km
new line.line_132 bus1=bus_91.1 bus2=bus_93.1 linecode=LCode_132 length=1.0 units=km
new linecode.LCode_133 nphases=1 rmatrix=[0.830272] xmatrix=[1.242115] units=km
new line.line_133 bus1=bus_92.1 bus2=bus_93.1 linecode=LCode_133 length=1.0 units=km
new linecode.LCode_134 nphases=1 rmatrix=[0.796030] xmatrix=[1.242115] units=km
new line.line_134 bus1=bus_93.1 bus2=bus_94.1 linecode=LCode_134 length=1.0 units=km
new linecode.LCode_135 nphases=1 rmatrix=[0.223311] xmatrix=[1.507630] units=km
new line.line_135 bus1=bus_79.1 bus2=bus_95.1 linecode=LCode_135 length=1.0 units=km
new linecode.LCode_136 nphases=1 rmatrix=[0.485259] xmatrix=[1.413428] units=km
new line.line_136 bus1=bus_81.1 bus2=bus_95.1 linecode=LCode_136 length=1.0 units=km
new linecode.LCode_137 nphases=1 rmatrix=[1.261923] xmatrix=[1.393348] units=km
new line.line_137 bus1=bus_93.1 bus2=bus_95.1 linecode=LCode_137 length=1.0 units=km
new linecode.LCode_138 nphases=1 rmatrix=[0.346487] xmatrix=[1.416029] units=km
new line.line_138 bus1=bus_79.1 bus2=bus_96.1 linecode=LCode_138 length=1.0 units=km
new linecode.LCode_139 nphases=1 rmatrix=[0.747876] xmatrix=[1.242115] units=km
new line.line_139 bus1=bus_79.1 bus2=bus_97.1 linecode=LCode_139 length=1.0 units=km
new linecode.LCode_140 nphases=1 rmatrix=[0.282722] xmatrix=[1.381104] units=km
new line.line_140 bus1=bus_79.1 bus2=bus_98.1 linecode=LCode_140 length=1.0 units=km
new linecode.LCode_141 nphases=1 rmatrix=[0.744034] xmatrix=[1.242115] units=km
new line.line_141 bus1=bus_91.1 bus2=bus_99.1 linecode=LCode_141 length=1.0 units=km
new linecode.LCode_142 nphases=1 rmatrix=[0.772801] xmatrix=[1.320498] units=km
new line.line_142 bus1=bus_93.1 bus2=bus_99.1 linecode=LCode_142 length=1.0 units=km
new linecode.LCode_143 nphases=1 rmatrix=[0.541845] xmatrix=[1.242115] units=km
new line.line_143 bus1=bus_94.1 bus2=bus_95.1 linecode=LCode_143 length=1.0 units=km
new linecode.LCode_144 nphases=1 rmatrix=[0.235693] xmatrix=[1.242115] units=km
new line.line_144 bus1=bus_95.1 bus2=bus_96.1 linecode=LCode_144 length=1.0 units=km
new linecode.LCode_145 nphases=1 rmatrix=[0.264770] xmatrix=[1.242115] units=km
new line.line_145 bus1=bus_97.1 bus2=bus_99.1 linecode=LCode_145 length=1.0 units=km
new linecode.LCode_146 nphases=1 rmatrix=[0.666313] xmatrix=[1.349792] units=km
new line.line_146 bus1=bus_98.1 bus2=bus_99.1 linecode=LCode_146 length=1.0 units=km
new linecode.LCode_147 nphases=1 rmatrix=[0.886296] xmatrix=[1.316342] units=km
new line.line_147 bus1=bus_99.1 bus2=bus_100.1 linecode=LCode_147 length=1.0 units=km
new linecode.LCode_148 nphases=1 rmatrix=[0.926795] xmatrix=[1.408521] units=km
new line.line_148 bus1=bus_91.1 bus2=bus_101.1 linecode=LCode_148 length=1.0 units=km
new linecode.LCode_149 nphases=1 rmatrix=[0.147391] xmatrix=[1.668608] units=km
new line.line_149 bus1=bus_100.1 bus2=bus_101.1 linecode=LCode_149 length=1.0 units=km
new linecode.LCode_150 nphases=1 rmatrix=[0.699140] xmatrix=[1.314856] units=km
new line.line_150 bus1=bus_99.1 bus2=bus_102.1 linecode=LCode_150 length=1.0 units=km
new linecode.LCode_151 nphases=1 rmatrix=[0.362282] xmatrix=[1.338128] units=km
new line.line_151 bus1=bus_99.1 bus2=bus_103.1 linecode=LCode_151 length=1.0 units=km
new linecode.LCode_152 nphases=1 rmatrix=[0.645762] xmatrix=[1.242115] units=km
new line.line_152 bus1=bus_102.1 bus2=bus_103.1 linecode=LCode_152 length=1.0 units=km
new linecode.LCode_153 nphases=1 rmatrix=[1.202644] xmatrix=[1.408034] units=km
new line.line_153 bus1=bus_102.1 bus2=bus_104.1 linecode=LCode_153 length=1.0 units=km
new linecode.LCode_154 nphases=1 rmatrix=[0.430019] xmatrix=[1.262357] units=km
new line.line_154 bus1=bus_99.1 bus2=bus_105.1 linecode=LCode_154 length=1.0 units=km
new linecode.LCode_155 nphases=1 rmatrix=[0.404960] xmatrix=[1.242115] units=km
new line.line_155 bus1=bus_103.1 bus2=bus_104.1 linecode=LCode_155 length=1.0 units=km
new linecode.LCode_156 nphases=1 rmatrix=[0.790369] xmatrix=[1.367627] units=km
new line.line_156 bus1=bus_104.1 bus2=bus_105.1 linecode=LCode_156 length=1.0 units=km
new linecode.LCode_157 nphases=1 rmatrix=[0.799936] xmatrix=[1.242115] units=km
new line.line_157 bus1=bus_104.1 bus2=bus_106.1 linecode=LCode_157 length=1.0 units=km
new linecode.LCode_158 nphases=1 rmatrix=[0.861236] xmatrix=[1.249608] units=km
new line.line_158 bus1=bus_104.1 bus2=bus_107.1 linecode=LCode_158 length=1.0 units=km
new linecode.LCode_159 nphases=1 rmatrix=[1.169086] xmatrix=[1.277701] units=km
new line.line_159 bus1=bus_105.1 bus2=bus_106.1 linecode=LCode_159 length=1.0 units=km
new linecode.LCode_160 nphases=1 rmatrix=[0.895476] xmatrix=[1.444443] units=km
new line.line_160 bus1=bus_107.1 bus2=bus_108.1 linecode=LCode_160 length=1.0 units=km
new linecode.LCode_161 nphases=1 rmatrix=[0.705386] xmatrix=[1.344478] units=km
new line.line_161 bus1=bus_102.1 bus2=bus_109.1 linecode=LCode_161 length=1.0 units=km
new linecode.LCode_162 nphases=1 rmatrix=[0.718256] xmatrix=[1.248349] units=km
new line.line_162 bus1=bus_108.1 bus2=bus_109.1 linecode=LCode_162 length=1.0 units=km
new linecode.LCode_163 nphases=1 rmatrix=[0.607961] xmatrix=[1.263165] units=km
new line.line_163 bus1=bus_109.1 bus2=bus_110.1 linecode=LCode_163 length=1.0 units=km
new linecode.LCode_164 nphases=1 rmatrix=[0.980878] xmatrix=[1.524039] units=km
new line.line_164 bus1=bus_109.1 bus2=bus_111.1 linecode=LCode_164 length=1.0 units=km
new linecode.LCode_165 nphases=1 rmatrix=[0.285180] xmatrix=[1.317922] units=km
new line.line_165 bus1=bus_16.2 bus2=bus_112.2 linecode=LCode_165 length=1.0 units=km
new linecode.LCode_166 nphases=2 rmatrix=[0.368027 | 0.059160 0.368027] xmatrix=[1.242115 | 1.024695 1.242115] units=km
new line.line_166 bus1=bus_31.2.3 bus2=bus_112.2.3 linecode=LCode_166 length=1.0 units=km
new linecode.LCode_167 nphases=2 rmatrix=[0.608884 | 0.059160 0.608884] xmatrix=[1.268937 | 1.024695 1.268937] units=km
new line.line_167 bus1=bus_31.2.3 bus2=bus_113.2.3 linecode=LCode_167 length=1.0 units=km
new linecode.LCode_168 nphases=1 rmatrix=[0.506681] xmatrix=[1.262920] units=km
new line.line_168 bus1=bus_26.3 bus2=bus_114.3 linecode=LCode_168 length=1.0 units=km
new linecode.LCode_169 nphases=1 rmatrix=[0.587171] xmatrix=[1.242115] units=km
new line.line_169 bus1=bus_113.3 bus2=bus_114.3 linecode=LCode_169 length=1.0 units=km
new linecode.LCode_170 nphases=1 rmatrix=[0.943966] xmatrix=[1.271074] units=km
new line.line_170 bus1=bus_11.2 bus2=bus_116.2 linecode=LCode_170 length=1.0 units=km
new linecode.LCode_171 nphases=2 rmatrix=[0.278156 | 0.059160 0.278156] xmatrix=[1.242115 | 1.024695 1.242115] units=km
new line.line_171 bus1=bus_74.2.3 bus2=bus_117.2.3 linecode=LCode_171 length=1.0 units=km

!---------------- LOADS ----------------

new load.load_0_B bus1=bus_0.2 Phases=1 kv=157.6864406779661 kw=1848.0420988737733 kvar=606.1578084305977 vminpu=0.85
new load.load_1_B bus1=bus_1.2 Phases=1 kv=157.6864406779661 kw=1878.659886069025 kvar=616.2004426306403 vminpu=0.85
new load.load_2_B bus1=bus_2.2 Phases=1 kv=157.6864406779661 kw=2458.5105256762654 kvar=806.3914524218151 vminpu=0.85
new load.load_3_B bus1=bus_3.2 Phases=1 kv=157.6864406779661 kw=2020.377530872904 kvar=662.6838301263125 vminpu=0.85
new load.load_4_B bus1=bus_4.2 Phases=1 kv=157.6864406779661 kw=2000.2263850614863 kvar=656.0742543001676 vminpu=0.85
new load.load_5_B bus1=bus_5.2 Phases=1 kv=157.6864406779661 kw=1705.744476611019 kvar=559.4841883284142 vminpu=0.85
new load.load_6_B bus1=bus_6.2 Phases=1 kv=157.6864406779661 kw=1920.894387155623 kvar=630.0533589870444 vminpu=0.85
new load.load_7_B bus1=bus_7.2 Phases=1 kv=157.6864406779661 kw=2112.399962893604 kvar=692.8671878291021 vminpu=0.85
new load.load_8_B bus1=bus_8.2 Phases=1 kv=157.6864406779661 kw=1885.4918791519003 kvar=618.4413363618233 vminpu=0.85
new load.load_9_B bus1=bus_9.2 Phases=1 kv=157.6864406779661 kw=1589.6558162969795 kvar=521.4071077454093 vminpu=0.85
new load.load_10_B bus1=bus_10.2 Phases=1 kv=157.6864406779661 kw=2147.8457095565886 kvar=704.4933927345611 vminpu=0.85
new load.load_11_B bus1=bus_11.2 Phases=1 kv=157.6864406779661 kw=1400.6261685648092 kvar=459.40538328925743 vminpu=0.85
new load.load_12_C bus1=bus_12.3 Phases=1 kv=157.6864406779661 kw=2269.8537761042244 kvar=744.5120385621856 vminpu=0.85
new load.load_13_C bus1=bus_13.3 Phases=1 kv=157.6864406779661 kw=2433.8617620620985 kvar=798.3066579563683 vminpu=0.85
new load.load_14_C bus1=bus_14.3 Phases=1 kv=157.6864406779661 kw=1904.8963493071851 kvar=624.8060025727567 vminpu=0.85
new load.load_15_B bus1=bus_15.2 Phases=1 kv=157.6864406779661 kw=2033.8355846943075 kvar=667.0980717797329 vminpu=0.85
new load.load_16_B bus1=bus_16.2 Phases=1 kv=157.6864406779661 kw=1363.8063163326692 kvar=447.3284717571155 vminpu=0.85
new load.load_17_B bus1=bus_17.2 Phases=1 kv=157.6864406779661 kw=2268.960593662453 kvar=744.2190747212846 vminpu=0.85
new load.load_18_C bus1=bus_18.3 Phases=1 kv=157.6864406779661 kw=1601.519570764165 kvar=525.2984192106462 vminpu=0.85
new load.load_19_B bus1=bus_19.2 Phases=1 kv=157.6864406779661 kw=1482.3989554404404 kvar=486.2268573844645 vminpu=0.85
new load.load_19_C bus1=bus_19.3 Phases=1 kv=157.6864406779661 kw=731.8272457339258 kvar=240.03933660072767 vminpu=0.85
new load.load_20_B bus1=bus_20.2 Phases=1 kv=157.6864406779661 kw=387.5419465284343 kvar=127.11375846132647 vminpu=0.85
new load.load_20_C bus1=bus_20.3 Phases=1 kv=157.6864406779661 kw=1879.4111131253349 kvar=616.4468451051099 vminpu=0.85
new load.load_21_B bus1=bus_21.2 Phases=1 kv=157.6864406779661 kw=795.2273065579686 kvar=260.83455655101375 vminpu=0.85
new load.load_21_C bus1=bus_21.3 Phases=1 kv=157.6864406779661 kw=948.3699335089252 kvar=311.0653381909275 vminpu=0.85
new load.load_22_B bus1=bus_22.2 Phases=1 kv=157.6864406779661 kw=1333.244655993908 kvar=437.30424716600186 vminpu=0.85
new load.load_22_C bus1=bus_22.3 Phases=1 kv=157.6864406779661 kw=908.295710667 kvar=297.920993098776 vminpu=0.85
new load.load_23_B bus1=bus_23.2 Phases=1 kv=157.6864406779661 kw=871.119901538642 kvar=285.72732770467456 vminpu=0.85
new load.load_23_C bus1=bus_23.3 Phases=1 kv=157.6864406779661 kw=854.3388748625916 kvar=280.2231509549301 vminpu=0.85
new load.load_24_B bus1=bus_24.2 Phases=1 kv=157.6864406779661 kw=1271.0783427516003 kvar=416.91369642252494 vminpu=0.85
new load.load_24_C bus1=bus_24.3 Phases=1 kv=157.6864406779661 kw=99.56821297317366 kvar=32.65837385520096 vminpu=0.85
new load.load_25_B bus1=bus_25.2 Phases=1 kv=157.6864406779661 kw=690.0658494239019 kvar=226.34159861103984 vminpu=0.85
new load.load_25_C bus1=bus_25.3 Phases=1 kv=157.6864406779661 kw=1463.416452575334 kvar=480.0005964447096 vminpu=0.85
new load.load_26_C bus1=bus_26.3 Phases=1 kv=157.6864406779661 kw=2557.97256374188 kvar=839.0150009073367 vminpu=0.85
new load.load_27_C bus1=bus_27.3 Phases=1 kv=157.6864406779661 kw=2104.1112669079807 kvar=690.1484955458177 vminpu=0.85
new load.load_28_B bus1=bus_28.2 Phases=1 kv=157.6864406779661 kw=2072.065054350004 kvar=679.6373378268014 vminpu=0.85
new load.load_28_C bus1=bus_28.3 Phases=1 kv=157.6864406779661 kw=293.80188846982395 kvar=96.36701941810226 vminpu=0.85
new load.load_29_A bus1=bus_29.1 Phases=1 kv=157.6864406779661 kw=287.0784098232688 kvar=94.16171842203218 vminpu=0.85
new load.load_29_B bus1=bus_29.2 Phases=1 kv=157.6864406779661 kw=2178.249066396215 kvar=714.4656937779584 vminpu=0.85
new load.load_30_B bus1=bus_30.2 Phases=1 kv=157.6864406779661 kw=337.1506110840937 kvar=110.58540043558274 vminpu=0.85
new load.load_30_C bus1=bus_30.3 Phases=1 kv=157.6864406779661 kw=2373.4201308197707 kvar=778.4818029088848 vminpu=0.85
new load.load_31_B bus1=bus_31.2 Phases=1 kv=157.6864406779661 kw=201.100005758581 kvar=65.96080188881457 vminpu=0.85
new load.load_31_C bus1=bus_31.3 Phases=1 kv=157.6864406779661 kw=1199.004846089013 kvar=393.2735895171963 vminpu=0.85
new load.load_32_C bus1=bus_32.3 Phases=1 kv=157.6864406779661 kw=1836.1368959611632 kvar=602.2529018752615 vminpu=0.85
new load.load_33_C bus1=bus_33.3 Phases=1 kv=157.6864406779661 kw=1521.1290514108207 kvar=498.9303288627492 vminpu=0.85
new load.load_34_C bus1=bus_34.3 Phases=1 kv=157.6864406779661 kw=2802.057726557284 kvar=919.0749343107891 vminpu=0.85
new load.load_35_C bus1=bus_35.3 Phases=1 kv=157.6864406779661 kw=1817.326346360349 kvar=596.0830416061945 vminpu=0.85
new load.load_36_C bus1=bus_36.3 Phases=1 kv=157.6864406779661 kw=2093.945452865272 kvar=686.8141085398092 vminpu=0.85
new load.load_37_A bus1=bus_37.1 Phases=1 kv=157.6864406779661 kw=1170.9693627942083 kvar=384.07795099650036 vminpu=0.85
new load.load_37_B bus1=bus_37.2 Phases=1 kv=157.6864406779661 kw=644.66104638247 kvar=211.44882321345017 vminpu=0.85
new load.load_38_B bus1=bus_38.2 Phases=1 kv=157.6864406779661 kw=909.268310169202 kvar=298.24000573549824 vminpu=0.85
new load.load_38_C bus1=bus_38.3 Phases=1 kv=157.6864406779661 kw=1630.979218864706 kvar=534.9611837876236 vminpu=0.85
new load.load_39_B bus1=bus_39.2 Phases=1 kv=157.6864406779661 kw=1406.434859356541 kvar=461.31063386894544 vminpu=0.85
new load.load_39_C bus1=bus_39.3 Phases=1 kv=157.6864406779661 kw=683.4041962913548 kvar=224.15657638356438 vminpu=0.85
new load.load_40_B bus1=bus_40.2 Phases=1 kv=157.6864406779661 kw=673.164301159728 kvar=220.7978907803908 vminpu=0.85
new load.load_40_C bus1=bus_40.3 Phases=1 kv=157.6864406779661 kw=1028.9864871064265 kvar=337.5075677709079 vminpu=0.85
new load.load_41_B bus1=bus_41.2 Phases=1 kv=157.6864406779661 kw=466.2589548453457 kvar=152.93293718927342 vminpu=0.85
new load.load_41_C bus1=bus_41.3 Phases=1 kv=157.6864406779661 kw=1367.9608926685246 kvar=448.6911727952761 vminpu=0.85
new load.load_42_B bus1=bus_42.2 Phases=1 kv=157.6864406779661 kw=660.6127419727733 kvar=216.68097936706965 vminpu=0.85
new load.load_42_C bus1=bus_42.3 Phases=1 kv=157.6864406779661 kw=1305.9148076542558 kvar=428.34005691059593 vminpu=0.85
new load.load_43_B bus1=bus_43.2 Phases=1 kv=157.6864406779661 kw=2067.203598778695 kvar=678.042780399412 vminpu=0.85
new load.load_43_C bus1=bus_43.3 Phases=1 kv=157.6864406779661 kw=153.8217745665025 kvar=50.453542057812825 vminpu=0.85
new load.load_44_B bus1=bus_44.2 Phases=1 kv=157.6864406779661 kw=386.5374336862794 kvar=126.78427824909966 vminpu=0.85
new load.load_44_C bus1=bus_44.3 Phases=1 kv=157.6864406779661 kw=1909.419246121296 kvar=626.2895127277851 vminpu=0.85
new load.load_45_B bus1=bus_45.2 Phases=1 kv=157.6864406779661 kw=873.7166697210894 kvar=286.5790676685173 vminpu=0.85
new load.load_45_C bus1=bus_45.3 Phases=1 kv=157.6864406779661 kw=819.0712087737173 kvar=268.6553564777793 vminpu=0.85
new load.load_46_B bus1=bus_46.2 Phases=1 kv=157.6864406779661 kw=1004.876050162834 kvar=329.59934445340957 vminpu=0.85
new load.load_46_C bus1=bus_46.3 Phases=1 kv=157.6864406779661 kw=1260.048332105351 kvar=413.2958529305551 vminpu=0.85
new load.load_47_A bus1=bus_47.1 Phases=1 kv=157.6864406779661 kw=35.49817535666727 kvar=11.643401516986865 vminpu=0.85
new load.load_47_B bus1=bus_47.2 Phases=1 kv=157.6864406779661 kw=1183.009837103503 kvar=388.027226569949 vminpu=0.85
new load.load_47_C bus1=bus_47.3 Phases=1 kv=157.6864406779661 kw=973.3799962820935 kvar=319.2686387805267 vminpu=0.85
new load.load_48_A bus1=bus_48.1 Phases=1 kv=157.6864406779661 kw=108.38972533577098 kvar=35.55182991013288 vminpu=0.85
new load.load_48_B bus1=bus_48.2 Phases=1 kv=157.6864406779661 kw=660.2907607783865 kvar=216.57536953531078 vminpu=0.85
new load.load_48_C bus1=bus_48.3 Phases=1 kv=157.6864406779661 kw=1070.697808773193 kvar=351.1888812776073 vminpu=0.85
new load.load_49_A bus1=bus_49.1 Phases=1 kv=157.6864406779661 kw=2167.5746353481027 kvar=710.9644803941777 vminpu=0.85
new load.load_49_B bus1=bus_49.2 Phases=1 kv=157.6864406779661 kw=159.6631355551013 kvar=52.36950846207323 vminpu=0.85
new load.load_49_C bus1=bus_49.3 Phases=1 kv=157.6864406779661 kw=310.02565343926284 kvar=101.68841432807821 vminpu=0.85
new load.load_50_B bus1=bus_50.2 Phases=1 kv=157.6864406779661 kw=1942.3932348919989 kvar=637.1049810445757 vminpu=0.85
new load.load_50_C bus1=bus_50.3 Phases=1 kv=157.6864406779661 kw=7.472530194460845 kvar=2.450989903783157 vminpu=0.85
new load.load_51_B bus1=bus_51.2 Phases=1 kv=157.6864406779661 kw=1431.099184724411 kvar=469.4005325896069 vminpu=0.85
new load.load_51_C bus1=bus_51.3 Phases=1 kv=157.6864406779661 kw=501.4103382196656 kvar=164.46259093605033 vminpu=0.85
new load.load_52_A bus1=bus_52.1 Phases=1 kv=157.6864406779661 kw=1691.7216288912955 kvar=554.8846942763449 vminpu=0.85
new load.load_52_B bus1=bus_52.2 Phases=1 kv=157.6864406779661 kw=100.0075652853388 kvar=32.802481413591124 vminpu=0.85
new load.load_53_A bus1=bus_53.1 Phases=1 kv=157.6864406779661 kw=1434.7129760416683 kvar=470.5858561416672 vminpu=0.85
new load.load_53_B bus1=bus_53.2 Phases=1 kv=157.6864406779661 kw=102.3155917113292 kvar=33.55951408131598 vminpu=0.85
new load.load_54_B bus1=bus_54.2 Phases=1 kv=157.6864406779661 kw=1985.486594535792 kvar=651.2396030077398 vminpu=0.85
new load.load_55_A bus1=bus_55.1 Phases=1 kv=157.6864406779661 kw=1279.162241482791 kvar=419.56521520635545 vminpu=0.85
new load.load_55_B bus1=bus_55.2 Phases=1 kv=157.6864406779661 kw=125.24228103163772 kvar=41.07946817837717 vminpu=0.85
new load.load_56_A bus1=bus_56.1 Phases=1 kv=157.6864406779661 kw=1195.6738147246324 kvar=392.1810112296794 vminpu=0.85
new load.load_56_B bus1=bus_56.2 Phases=1 kv=157.6864406779661 kw=76.21673847484803 kvar=24.999090219750155 vminpu=0.85
new load.load_56_C bus1=bus_56.3 Phases=1 kv=157.6864406779661 kw=814.5889565953902 kvar=267.185177763288 vminpu=0.85
new load.load_57_B bus1=bus_57.2 Phases=1 kv=157.6864406779661 kw=423.2349721801656 kvar=138.8210708750943 vminpu=0.85
new load.load_57_C bus1=bus_57.3 Phases=1 kv=157.6864406779661 kw=1256.9057268830973 kvar=412.2650784176559 vminpu=0.85
new load.load_58_B bus1=bus_58.2 Phases=1 kv=157.6864406779661 kw=2754.5656685235435 kvar=903.4975392757224 vminpu=0.85
new load.load_59_B bus1=bus_59.2 Phases=1 kv=157.6864406779661 kw=2307.282492203843 kvar=756.7886574428605 vminpu=0.85
new load.load_60_B bus1=bus_60.2 Phases=1 kv=157.6864406779661 kw=2110.9210028980992 kvar=692.3820889505765 vminpu=0.85
new load.load_61_B bus1=bus_61.2 Phases=1 kv=157.6864406779661 kw=2476.054491956774 kvar=812.1458733618219 vminpu=0.85
new load.load_62_A bus1=bus_62.1 Phases=1 kv=157.6864406779661 kw=921.8870942312316 kvar=302.37896690784396 vminpu=0.85
new load.load_62_B bus1=bus_62.2 Phases=1 kv=157.6864406779661 kw=1078.9797110838877 kvar=353.90534523551514 vminpu=0.85
new load.load_63_A bus1=bus_63.1 Phases=1 kv=157.6864406779661 kw=1795.265252002187 kvar=588.8470026567173 vminpu=0.85
new load.load_63_B bus1=bus_63.2 Phases=1 kv=157.6864406779661 kw=246.3701827243717 kvar=80.80941993359392 vminpu=0.85
new load.load_64_A bus1=bus_64.1 Phases=1 kv=157.6864406779661 kw=1658.6335905881197 kvar=544.0318177129033 vminpu=0.85
new load.load_64_B bus1=bus_64.2 Phases=1 kv=157.6864406779661 kw=57.41931419965633 kvar=18.833535057487275 vminpu=0.85
new load.load_65_A bus1=bus_65.1 Phases=1 kv=157.6864406779661 kw=344.63953110993293 kvar=113.041766204058 vminpu=0.85
new load.load_65_B bus1=bus_65.2 Phases=1 kv=157.6864406779661 kw=1480.1104741418883 kvar=485.4762355185394 vminpu=0.85
new load.load_66_A bus1=bus_66.1 Phases=1 kv=157.6864406779661 kw=1403.4967544108529 kvar=460.34693544675974 vminpu=0.85
new load.load_66_B bus1=bus_66.2 Phases=1 kv=157.6864406779661 kw=281.59771628877184 kvar=92.36405094271717 vminpu=0.85
new load.load_67_A bus1=bus_67.1 Phases=1 kv=157.6864406779661 kw=2156.817911243674 kvar=707.4362748879252 vminpu=0.85
new load.load_67_B bus1=bus_67.2 Phases=1 kv=157.6864406779661 kw=322.45959955905914 kvar=105.7667486553714 vminpu=0.85
new load.load_69_B bus1=bus_69.2 Phases=1 kv=157.6864406779661 kw=1945.4175895599292 kvar=638.0969693756568 vminpu=0.85
new load.load_69_C bus1=bus_69.3 Phases=1 kv=157.6864406779661 kw=884.503055471066 kvar=290.11700219450967 vminpu=0.85
new load.load_70_C bus1=bus_70.3 Phases=1 kv=157.6864406779661 kw=2809.7897734937105 kvar=921.611045705937 vminpu=0.85
new load.load_71_B bus1=bus_71.2 Phases=1 kv=157.6864406779661 kw=536.8756322915908 kvar=176.0952073916418 vminpu=0.85
new load.load_71_C bus1=bus_71.3 Phases=1 kv=157.6864406779661 kw=1130.5860412564164 kvar=370.8322215321046 vminpu=0.85
new load.load_72_C bus1=bus_72.3 Phases=1 kv=157.6864406779661 kw=2433.236453629632 kvar=798.1015567905192 vminpu=0.85
new load.load_73_B bus1=bus_73.2 Phases=1 kv=157.6864406779661 kw=1148.552929730355 kvar=376.7253609515564 vminpu=0.85
new load.load_73_C bus1=bus_73.3 Phases=1 kv=157.6864406779661 kw=650.3266852382516 kvar=213.30715275814651 vminpu=0.85
new load.load_74_B bus1=bus_74.2 Phases=1 kv=157.6864406779661 kw=285.0648619458844 kvar=93.50127471825009 vminpu=0.85
new load.load_74_C bus1=bus_74.3 Phases=1 kv=157.6864406779661 kw=1781.43198505597 kvar=584.3096910983581 vminpu=0.85
new load.load_75_A bus1=bus_75.1 Phases=1 kv=157.6864406779661 kw=2188.79276931331 kvar=717.9240283347658 vminpu=0.85
new load.load_76_A bus1=bus_76.1 Phases=1 kv=157.6864406779661 kw=2329.6817300933385 kvar=764.135607470615 vminpu=0.85
new load.load_77_A bus1=bus_77.1 Phases=1 kv=157.6864406779661 kw=1645.371476428368 kvar=539.6818442685047 vminpu=0.85
new load.load_78_A bus1=bus_78.1 Phases=1 kv=157.6864406779661 kw=2188.521170260577 kvar=717.8349438454693 vminpu=0.85
new load.load_79_A bus1=bus_79.1 Phases=1 kv=157.6864406779661 kw=1778.5947417376842 kvar=583.3790752899605 vminpu=0.85
new load.load_80_A bus1=bus_80.1 Phases=1 kv=157.6864406779661 kw=1407.9815847607083 kvar=461.81795980151236 vminpu=0.85
new load.load_80_B bus1=bus_80.2 Phases=1 kv=157.6864406779661 kw=883.4732263304071 kvar=289.77921823637354 vminpu=0.85
new load.load_81_A bus1=bus_81.1 Phases=1 kv=157.6864406779661 kw=1484.4573630806233 kvar=486.9020150904445 vminpu=0.85
new load.load_82_A bus1=bus_82.1 Phases=1 kv=157.6864406779661 kw=2215.4320859681334 kvar=726.6617241975478 vminpu=0.85
new load.load_83_A bus1=bus_83.1 Phases=1 kv=157.6864406779661 kw=2302.3816413116406 kvar=755.1811783502181 vminpu=0.85
new load.load_84_A bus1=bus_84.1 Phases=1 kv=157.6864406779661 kw=2279.301085052225 kvar=747.6107558971298 vminpu=0.85
new load.load_85_A bus1=bus_85.1 Phases=1 kv=157.6864406779661 kw=1939.3928027702716 kvar=636.1208393086491 vminpu=0.85
new load.load_86_A bus1=bus_86.1 Phases=1 kv=157.6864406779661 kw=2866.0230140217363 kvar=940.0555485991296 vminpu=0.85
new load.load_87_A bus1=bus_87.1 Phases=1 kv=157.6864406779661 kw=2269.884275825891 kvar=744.5220424708923 vminpu=0.85
new load.load_88_A bus1=bus_88.1 Phases=1 kv=157.6864406779661 kw=2223.822013904987 kvar=729.4136205608359 vminpu=0.85
new load.load_89_A bus1=bus_89.1 Phases=1 kv=157.6864406779661 kw=1936.3410619246015 kvar=635.1198683112693 vminpu=0.85
new load.load_90_A bus1=bus_90.1 Phases=1 kv=157.6864406779661 kw=1836.9297597718248 kvar=602.5129612051586 vminpu=0.85
new load.load_91_A bus1=bus_91.1 Phases=1 kv=157.6864406779661 kw=1943.0283414882088 kvar=637.3132960081325 vminpu=0.85
new load.load_92_A bus1=bus_92.1 Phases=1 kv=157.6864406779661 kw=2451.615994275394 kvar=804.1300461223292 vminpu=0.85
new load.load_93_A bus1=bus_93.1 Phases=1 kv=157.6864406779661 kw=1215.393392398158 kvar=398.64903270659585 vminpu=0.85
new load.load_94_A bus1=bus_94.1 Phases=1 kv=157.6864406779661 kw=2595.04739165932 kvar=851.175544464257 vminpu=0.85
new load.load_95_A bus1=bus_95.1 Phases=1 kv=157.6864406779661 kw=2192.1350018005523 kvar=719.0202805905813 vminpu=0.85
new load.load_96_A bus1=bus_96.1 Phases=1 kv=157.6864406779661 kw=2379.195289764025 kvar=780.3760550426002 vminpu=0.85
new load.load_97_A bus1=bus_97.1 Phases=1 kv=157.6864406779661 kw=2080.384623235132 kvar=682.3661564211234 vminpu=0.85
new load.load_98_A bus1=bus_98.1 Phases=1 kv=157.6864406779661 kw=1304.6220635922143 kvar=427.9160368582463 vminpu=0.85
new load.load_99_A bus1=bus_99.1 Phases=1 kv=157.6864406779661 kw=3156.3685687282136 kvar=1035.288890542854 vminpu=0.85
new load.load_100_A bus1=bus_100.1 Phases=1 kv=157.6864406779661 kw=1888.4626641610507 kvar=619.4157538448246 vminpu=0.85
new load.load_101_A bus1=bus_101.1 Phases=1 kv=157.6864406779661 kw=2727.614110142776 kvar=894.6574281268306 vminpu=0.85
new load.load_102_A bus1=bus_102.1 Phases=1 kv=157.6864406779661 kw=2911.306715746969 kvar=954.9086027650059 vminpu=0.85
new load.load_103_A bus1=bus_103.1 Phases=1 kv=157.6864406779661 kw=2030.513056725832 kvar=666.008282606073 vminpu=0.85
new load.load_104_A bus1=bus_104.1 Phases=1 kv=157.6864406779661 kw=1936.969363670025 kvar=635.3259512837682 vminpu=0.85
new load.load_105_A bus1=bus_105.1 Phases=1 kv=157.6864406779661 kw=1658.937764722668 kvar=544.1315868290351 vminpu=0.85
new load.load_106_A bus1=bus_106.1 Phases=1 kv=157.6864406779661 kw=1968.8292320196797 kvar=645.775988102455 vminpu=0.85
new load.load_107_A bus1=bus_107.1 Phases=1 kv=157.6864406779661 kw=2234.448177562432 kvar=732.8990022404778 vminpu=0.85
new load.load_108_A bus1=bus_108.1 Phases=1 kv=157.6864406779661 kw=2750.347487016796 kvar=902.1139757415092 vminpu=0.85
new load.load_109_A bus1=bus_109.1 Phases=1 kv=157.6864406779661 kw=1978.798463433253 kvar=649.045896006107 vminpu=0.85
new load.load_110_A bus1=bus_110.1 Phases=1 kv=157.6864406779661 kw=2105.6689567801923 kvar=690.6594178239031 vminpu=0.85
new load.load_111_A bus1=bus_111.1 Phases=1 kv=157.6864406779661 kw=974.2787639687872 kvar=319.56343458176224 vminpu=0.85
new load.load_112_B bus1=bus_112.2 Phases=1 kv=157.6864406779661 kw=1908.2880003099328 kvar=625.918464101658 vminpu=0.85
new load.load_112_C bus1=bus_112.3 Phases=1 kv=157.6864406779661 kw=192.6263381070524 kvar=63.18143889911319 vminpu=0.85
new load.load_113_B bus1=bus_113.2 Phases=1 kv=157.6864406779661 kw=384.177142860565 kvar=126.01010285826534 vminpu=0.85
new load.load_113_C bus1=bus_113.3 Phases=1 kv=157.6864406779661 kw=1243.751222217458 kvar=407.9504008873262 vminpu=0.85
new load.load_114_C bus1=bus_114.3 Phases=1 kv=157.6864406779661 kw=2223.8449281135195 kvar=729.4211364212345 vminpu=0.85
new load.load_115_A bus1=bus_115.1 Phases=1 kv=157.6864406779661 kw=7.051344438946202 kvar=2.3128409759743547 vminpu=0.85
new load.load_115_B bus1=bus_115.2 Phases=1 kv=157.6864406779661 kw=2591.0330612689445 kvar=849.8588440962138 vminpu=0.85
new load.load_116_B bus1=bus_116.2 Phases=1 kv=157.6864406779661 kw=2074.7957079837406 kvar=680.532992218667 vminpu=0.85
new load.load_117_B bus1=bus_117.2 Phases=1 kv=157.6864406779661 kw=1027.6541216371172 kvar=337.07055189697445 vminpu=0.85
new load.load_117_C bus1=bus_117.3 Phases=1 kv=157.6864406779661 kw=781.0626195921179 kvar=256.1885392262147 vminpu=0.85

!---------------- SOLUTION ----------------

set controlmode=off
Set Voltagebases=[157.6864406779661]
calcv
Solve